<?xml version="1.0" encoding="UTF-8"?>
<net>
    <junctions>
        <junction id="0" type="priority" x="0" y="0"/>
    </junctions>

    <edges>
        <edge id="n" from="n1" to="0"/>
        <edge id="s" from="s1" to="0"/>
        <edge id="e" from="e1" to="0"/>
        <edge id="w" from="w1" to="0"/>
    </edges>

    <connections>
        <connection from="n" to="s"/>
        <connection from="s" to="n"/>
        <connection from="e" to="w"/>
        <connection from="w" to="e"/>
    </connections>
</net>